Version 4
SHEET 1 1232 792
WIRE -352 32 -352 -16
WIRE -256 32 -352 32
WIRE 160 32 -256 32
WIRE 112 80 16 80
WIRE 16 96 16 80
WIRE -352 112 -352 32
WIRE -32 112 -192 112
WIRE 112 112 112 80
WIRE -256 128 -256 32
WIRE 160 176 160 128
WIRE 160 176 112 176
WIRE 208 176 160 176
WIRE 336 176 288 176
WIRE 352 176 336 176
WIRE 448 176 432 176
WIRE 576 176 528 176
WIRE 656 176 576 176
WIRE 752 176 656 176
WIRE 944 176 752 176
WIRE 16 192 16 176
WIRE 112 192 112 176
WIRE 112 192 16 192
WIRE 160 192 160 176
WIRE 336 192 336 176
WIRE 576 192 576 176
WIRE 112 208 48 208
WIRE 0 224 -176 224
WIRE 944 224 944 176
WIRE 752 256 752 176
WIRE 112 272 112 208
WIRE 432 272 336 272
WIRE 576 272 496 272
WIRE -352 320 -352 192
WIRE -256 320 -256 192
WIRE -256 320 -352 320
WIRE 0 320 0 272
WIRE 0 320 -256 320
WIRE 48 320 48 288
WIRE 48 320 0 320
WIRE 160 320 160 288
WIRE 160 320 48 320
WIRE 656 320 160 320
WIRE 944 320 944 304
WIRE 272 352 192 352
WIRE 576 352 576 272
WIRE 576 352 368 352
WIRE 656 352 656 320
WIRE 336 368 336 272
WIRE 336 368 320 368
WIRE -112 384 -128 384
WIRE -16 384 -32 384
WIRE 512 400 480 400
WIRE 640 400 576 400
WIRE 368 416 368 352
WIRE 368 416 320 416
WIRE 192 432 192 352
WIRE 192 432 176 432
WIRE 880 432 816 368
WIRE 1008 432 880 432
WIRE 112 448 96 448
WIRE 208 464 176 464
WIRE 208 480 208 464
WIRE 304 480 208 480
WIRE 400 480 384 480
WIRE 480 496 480 400
WIRE 640 496 640 400
WIRE 640 496 624 496
WIRE 1056 496 1008 432
WIRE -192 512 -192 112
WIRE -144 512 -192 512
WIRE -16 512 -16 384
WIRE -16 512 -48 512
WIRE 96 528 96 448
WIRE 96 528 64 528
WIRE 64 544 64 528
WIRE 64 544 32 544
WIRE -176 560 -176 224
WIRE -160 560 -176 560
WIRE -32 560 -48 560
WIRE 480 560 480 496
WIRE 480 560 96 560
WIRE 640 560 640 496
WIRE 752 560 752 336
WIRE 752 560 640 560
WIRE 96 576 96 560
WIRE 96 576 32 576
WIRE 880 576 880 544
WIRE 640 608 640 560
WIRE 640 608 592 608
WIRE 752 608 752 560
WIRE 480 624 480 560
WIRE 528 624 480 624
WIRE 416 640 496 528
WIRE 640 640 592 640
WIRE 640 656 640 640
WIRE 752 720 752 688
WIRE 640 752 640 736
FLAG -352 -16 Vin
FLAG 656 352 0
FLAG 752 176 Vout
FLAG -32 160 0
FLAG 752 720 0
FLAG 640 752 0
FLAG 880 656 0
FLAG 560 656 0
FLAG 880 544 V+
FLAG 560 592 V+
FLAG 272 432 0
FLAG 400 480 0
FLAG -128 384 0
FLAG 944 320 0
SYMBOL voltage -352 96 R0
SYMATTR InstName V1
SYMATTR Value 20
SYMBOL cap -272 128 R0
SYMATTR InstName C1
SYMATTR Value 10µ
SYMBOL nmos 112 32 R0
SYMATTR InstName M1
SYMATTR Value Si7336ADP
SYMBOL ind 304 160 R90
WINDOW 0 5 56 VBottom 2
WINDOW 3 32 56 VTop 2
SYMATTR InstName L1
SYMATTR Value 2µ
SYMBOL res 448 160 R90
WINDOW 0 0 56 VBottom 2
WINDOW 3 32 56 VTop 2
SYMATTR InstName Shunt
SYMATTR Value 1m
SYMBOL cap 640 256 R0
SYMATTR InstName C2
SYMATTR Value 100µ
SYMBOL res 640 160 R0
SYMATTR InstName R1
SYMATTR Value 1m
SYMBOL Digital\\srflop -96 464 M0
SYMATTR InstName A1
SYMBOL e 16 80 R0
SYMATTR InstName E1
SYMATTR Value 5
SYMBOL e 48 192 R0
SYMATTR InstName E2
SYMATTR Value 5
SYMBOL nmos 112 192 R0
SYMATTR InstName M2
SYMATTR Value Si7336ADP
SYMBOL res 736 240 R0
SYMATTR InstName R2
SYMATTR Value 100k
SYMBOL OpAmps\\UniversalOpamp2 560 624 M0
SYMATTR InstName U1
SYMBOL voltage 640 640 R0
SYMATTR InstName V2
SYMATTR Value 0.7
SYMBOL res 736 592 R0
SYMATTR InstName R3
SYMATTR Value 10k
SYMBOL voltage 880 560 R0
SYMATTR InstName V3
SYMATTR Value 5
SYMBOL res 576 480 R90
WINDOW 0 0 56 VBottom 2
WINDOW 3 32 56 VTop 2
SYMATTR InstName R4
SYMATTR Value {X}
SYMBOL cap 624 480 R90
WINDOW 0 0 32 VBottom 2
WINDOW 3 32 32 VTop 2
SYMATTR InstName C3
SYMATTR Value 15n
SYMBOL cap 576 384 R90
WINDOW 0 0 32 VBottom 2
WINDOW 3 32 32 VTop 2
SYMATTR InstName C4
SYMATTR Value 100p
SYMBOL res 320 176 R0
SYMATTR InstName R5
SYMATTR Value 10
SYMBOL res 560 176 R0
SYMATTR InstName R6
SYMATTR Value 10
SYMBOL ind 544 160 R90
WINDOW 0 5 56 VBottom 2
WINDOW 3 32 56 VTop 2
SYMATTR InstName L2
SYMATTR Value 1n
SYMBOL cap 496 256 R90
WINDOW 0 0 32 VBottom 2
WINDOW 3 32 32 VTop 2
SYMATTR InstName C5
SYMATTR Value 5n
SYMBOL e 272 336 M0
SYMATTR InstName E3
SYMATTR Value 1
SYMBOL IdealAdder 144 448 M0
SYMATTR InstName X1
SYMBOL voltage 288 480 R270
WINDOW 0 32 56 VTop 2
WINDOW 3 -158 -266 VBottom 2
WINDOW 123 0 0 Left 0
WINDOW 39 0 0 Left 0
SYMATTR InstName Ramp
SYMATTR Value PULSE(0 {10*1m*Ts/L} 0 {1/Fs} 1n 1n {1/Fs})
SYMBOL IdealComparator 0 560 M0
SYMATTR InstName X2
SYMBOL voltage -16 384 R90
WINDOW 0 -32 56 VBottom 2
WINDOW 3 221 38 VTop 2
WINDOW 123 0 0 Left 0
WINDOW 39 0 0 Left 0
SYMATTR InstName Clock
SYMATTR Value PULSE(0 1 0 1n 1n {0.1*Ts} {Ts})
SYMBOL res 928 208 R0
SYMATTR InstName R7
SYMATTR Value R=if(time>5m,1,100k)
TEXT 560 96 Left 2 !.param Fs=250k
TEXT -256 720 Left 2 ;1)Show that the system is unstable with unproper divider\n2) the same, but with unproper ITH
TEXT 768 552 Left 2 ;1/11
TEXT 504 544 Left 2 ;OALevel2
TEXT 568 384 Left 2 ;less than 1n
TEXT 992 408 Left 2 ;c4
TEXT 328 40 Left 2 !.param Ts=1/Fs\n.param L=2u\n.param Vo=10
TEXT 206 608 Left 2 !.tran 0 7m 3m
TEXT 160 672 Left 2 ;R4 MUSTN'T BE TOO HIGH
TEXT 616 448 Left 2 ;below 50n
TEXT 224 728 Left 2 !.step param X list 1k 5k 10k
TEXT -296 -48 Left 6 ;CURRENT MODE BUCK CONVERTER
